/*--------------------------------*- C++ -*----------------------------------*\
| =========                 |                                                 |
| \\      /  F ield         | OpenFOAM: The Open Source CFD Toolbox           |
|  \\    /   O peration     | Version:  v2306                                 |
|   \\  /    A nd           | Website:  www.openfoam.com                      |
|    \\/     M anipulation  |                                                 |
\*---------------------------------------------------------------------------*/
FoamFile
{
    version     2.0;
    format      ascii;
    class       volScalarField;
    object      k;
}
// * * * * * * * * * * * * * * * * * * * * * * * * * * * * * * * * * * * * * //

dimensions      [0 2 -2 0 0 0 0];

internalField   uniform 0.1;

boundaryField
{
    seabed
    {
        type            kqRWallFunction;
        value           uniform 0.1;
    }

     leftBoundary
    {
        type            zeroGradient;
    }
    rightBoundary
    {
        type            zeroGradient;
    }
    
    front
    {
        type empty;
    }
    back
    {
        type empty;
    }
    atmosphere
    {
        type            inletOutlet;
        inletValue      uniform 0.1;
        value           uniform 0.1;
    }

    floatingObject
    {
        type            kqRWallFunction;
        value           uniform 0.1;
    }
}


// ************************************************************************* //
